14
C4H10 optimized with ADF in AMS.
 C       -0.00838592208748       0.01448711343010       1.11137479679088
 C        0.00227483454256      -0.00403480286573      -0.41613469681603
 C        0.70920317225579      -1.22857067541506      -0.99892720237794
 C        0.72004866362211      -1.24698035145064      -2.52643729722033
 H       -0.52183381791609       0.90338935855314       1.50286832364051
 H        1.01547187616684       0.01517798293690       1.51383461405615
 H       -0.52055789924858      -0.87203659098787       1.51390022258565
 H        0.49222331897205       0.90858320621830      -0.79495430373086
 H       -1.03307469453308       0.02802125389358      -0.79489117063189
 H        1.74450451422622      -1.26071385770291      -0.62004529957653
 H        0.21915638254262      -2.14118849993396      -0.62023648006156
 H        1.23246443159144      -0.36053991318066      -2.92883315510537
 H       -0.30376038429641      -1.24741582029211      -2.92902363472528
 H        1.23334552416202      -2.13596840320307      -2.91793471682738
